/batch
/config,noeldb,1     ! force off writing results to database
*get,_wallstrt,active,,time,wall
! ANSYS input file written by Workbench version 17.2 RELEASE
! File used for geometry attach: C:\Users\szalkiewicz\Desktop\RechteckTest.ipt
/title,unsaved_project--Static Structural
*DIM,_wb_ProjectScratch_dir,string,248
_wb_ProjectScratch_dir(1) = 'C:\Users\szalkiewicz\AppData\Local\Temp\WB_WZM126-AZ12_szalkiewicz_5804_2\unsaved_project_files\dp0\SYS\MECH\'
*DIM,_wb_SolverFiles_dir,string,248
_wb_SolverFiles_dir(1) = 'C:\Users\szalkiewicz\AppData\Local\Temp\WB_WZM126-AZ12_szalkiewicz_5804_2\unsaved_project_files\dp0\SYS\MECH\'
*DIM,_wb_userfiles_dir,string,248
_wb_userfiles_dir(1) = 'C:\Users\szalkiewicz\AppData\Local\Temp\WB_WZM126-AZ12_szalkiewicz_5804_2\unsaved_project_files\user_files\'
/com,--- Data in consistent NMM units. See Solving Units in the help system for more information.
/units,MPA
/nopr
/wb,file,start              !  signify a WB generated input file
/prep7
! Turn off shape checking because checks already performed inside WB mesher.
! See help system for more information.
SHPP,OFF,,NOWARN
/nolist
etcon,set             ! allow ANSYS to choose best KEYOP's for 180x elements
/com,*********** Nodes for the whole assembly ***********
nblock,3
(1i9,3e20.9e3)
        1    5.000000000E+001    1.526556659E-014    4.500000000E+000
        2    5.000000000E+001    1.526556659E-014    5.500000000E+000
        3    4.956698730E+001    7.500211389E-015    4.750000000E+000
        4    4.956698730E+001   -7.765355199E-015    5.250000000E+000
        5    5.000000000E+001    1.530808499E-014    1.000000000E+001
        6    5.000000000E+001    1.528682579E-014    7.750000000E+000
        7    0.000000000E+000    0.000000000E+000    1.000000000E+001
        8    2.777777778E+000    8.504491661E-016    1.000000000E+001
        9    5.555555556E+000    1.700898332E-015    1.000000000E+001
       10    8.333333333E+000    2.551347498E-015    1.000000000E+001
       11    1.111111111E+001    3.401796664E-015    1.000000000E+001
       12    1.388888889E+001    4.252245830E-015    1.000000000E+001
       13    1.666666667E+001    5.102694996E-015    1.000000000E+001
       14    1.944444444E+001    5.953144163E-015    1.000000000E+001
       15    2.222222222E+001    6.803593329E-015    1.000000000E+001
       16    2.500000000E+001    7.654042495E-015    1.000000000E+001
       17    2.777777778E+001    8.504491661E-015    1.000000000E+001
       18    3.055555556E+001    9.354940827E-015    1.000000000E+001
       19    3.333333333E+001    1.020538999E-014    1.000000000E+001
       20    3.611111111E+001    1.105583916E-014    1.000000000E+001
! ... 1088 like lines cut
/wb,elem,start            !  set before creation of elements
/com,*********** Elements for Body 1 "RechteckTest.ipt" ***********
et,1,187
eblock,19,solid,,512
(19i9)
        1        1        1        1        0        0        0        0       10        0        1        5      205       96      195      241      706      236      240
     1102      705
        1        1        1        1        0        0        0        0       10        0        2       33       34      184      167      387      398      391      388
      394     1010
        1        1        1        1        0        0        0        0       10        0        3      119      179      131      205      811      874      806      815
     1063      877
        1        1        1        1        0        0        0        0       10        0        4       62      165      184      146      538     1006      540      537
      918      920
        1        1        1        1        0        0        0        0       10        0        5       34      184      165      183      398     1006      393      397
     1076     1005
        1        1        1        1        0        0        0        0       10        0        6       33      184       34      177      391      398      387      389
     1054      396
        1        1        1        1        0        0        0        0       10        0        7       62      165      167      184      538     1004      539      540
     1006     1010
        1        1        1        1        0        0        0        0       10        0        8       56      163      161      186      511      989      510      512
      998      992
        1        1        1        1        0        0        0        0       10        0        9       13      156      155      188      283      968      282      285
      972      969
        1        1        1        1        0        0        0        0       10        0       10       62      184       63      146      540      545      536      537
      920      543
! ... 1005 like lines cut
!Material Id = {DD4E8D2D-9FC6-4282-93C2-5A20740954B4}
/wb,elem,end               !  done creating elements
/com,*********** Send User Defined Coordinate System(s) ***********
csys,0
toffst,273.15,  ! Temperature offset from absolute zero
/com,*********** Set Reference Temperature ***********
tref,22.
/wb,mat,start              !  starting to send materials
/com,*********** Send Materials ***********
MP,DENS,1,7.85e-09,	! tonne mm^-3
MP,ALPX,1,1.2e-05,	! C^-1
MP,C,1,434000000,	! mm^2 s^-2 C^-1
MP,KXX,1,60.5,	! tonne mm s^-3 C^-1
MP,RSVX,1,0.00017,	! ohm mm
MP,EX,1,200000,	! tonne s^-2 mm^-1
MP,NUXY,1,0.3,
MP,MURX,1,10000,

/wb,mat,end                !  done sending materials
!************************* Model Summary ********************
!RechteckTest.ipt,	Structural Steel,	matid,	1
!************************* End Model Summary ********************
! get the diagonal of the bounding box. Needed later for other things
*get,_xmin,node,,mnloc,x
*get,_ymin,node,,mnloc,y
*get,_zmin,node,,mnloc,z
*get,_xmax,node,,mxloc,x
*get,_ymax,node,,mxloc,y
*get,_zmax,node,,mxloc,z
_ASMDIAG=(_xmax-_xmin)*(_xmax-_xmin)+(_ymax-_ymin)*(_ymax-_ymin)+(_zmax-_zmin)*(_zmax-_zmin)
_ASMDIAG=SQRT(_ASMDIAG)
/wb,contact,start          !  starting to send contact
/wb,contact,end            !  done creating contacts
/com,*********** Send Named Selection as Node Component ***********
CMBLOCK,T_KRAFT ,NODE,        9
(8i10)
         1         2         3         4       209       210       211       221
       225
/com,*********** Send Named Selection as Node Component ***********
CMBLOCK,T_FEST  ,NODE,       43
(8i10)
         7        25        26        27        28        48        65        66
        67        68       102       103       104       105       182       251
       252       341       343       344       346       348       350       352
       353       355       469       470       551       553       554       555
       557       559       561       563       565       726       728       732
       734       736       740
/golist
/wb,load,start             !  starting to send loads
nsel,all
/gst,on,on
fini
*get,_numnode,node,0,count
*get,_numelem,elem,0,count
*get, _MAXELEMNUM, elem, 0, NUM, MAX
*get, _MAXNODENUM, node, 0, NUM, MAX
*get, _MAXELEMTYPE, etyp, 0, NUM, MAX
*get, _MAXREALCONST, real, 0, NUM, MAX
/go
/wb,load,end               !  done creating loads
/com,--- Number of total nodes = %_numnode%
/com,--- Number of contact elements = 0
/com,--- Number of spring elements = 0
/com,--- Number of bearing elements = 0
/com,--- Number of solid elements = 512
/com,--- Number of total elements = %_numelem%
*get,_wallbsol,active,,time,wall
/com,****************************************************************************
/com,*************************    SOLUTION       ********************************
/com,****************************************************************************
/solu
antype,0                   ! static analysis
eqsl,sparse,,,,,1
cntr,print,1               ! print out contact info and also make no initial contact an error
dmpopt,emat,no             ! Don't combine emat file for DANSYS
dmpopt,esav,no             ! Don't combine esav file for DANSYS
nldiag,cont,iter           ! print out contact info each equilibrium iteration
resc,,none                 ! Do not keep any restart files
/com,****************************************************
/com,******************* SOLVE FOR LS 1 ****************
/nopr
/gopr
nsub,1,1,1
time,1.
outres,erase
outres,all,none
outres,nsol,all
outres,rsol,all
outres,strs,all
outres,epel,all
outres,eppl,all
stabilize,off                   ! Stabilization turned OFF by user
! *********** WB SOLVE COMMAND ***********
! check interactive state
*get,ANSINTER_,active,,int
*if,ANSINTER_,ne,0,then
/eof
*endif
solve
/com *************** Write FE CONNECTORS ********* 
CEWRITE,file,ce,,INTE
/com,****************************************************
/com,*************** FINISHED SOLVE FOR LS 1 *************
*set,_DS_PROGRESS          ! turn off progress updates to avoid virus scanning bug
*get,_wallasol,active,,time,wall
/nopr
*get,_numnode,node,0,count
*get,_numelem,elem,0,count
*get, _MAXELEMNUM, elem, 0, NUM, MAX
*get, _MAXNODENUM, node, 0, NUM, MAX,,,INTERNAL
*get, _MAXELEMTYPE, etyp, 0, NUM, MAX
*get, _MAXREALCONST, real, 0, NUM, MAX
/gopr
/post1
xmlo,ENCODING,ISO-8859-1
xmlo,parm
/xml,parm,xml
fini
/gopr
*get,_walldone,active,,time,wall
_preptime=(_wallbsol-_wallstrt)*3600
_solvtime=(_wallasol-_wallbsol)*3600
_posttime=(_walldone-_wallasol)*3600
_totaltim=(_walldone-_wallstrt)*3600
/wb,file,end               ! done with WB generated input
