/batch
/config,noeldb,1     ! force off writing results to database
*get,_wallstrt,active,,time,wall
! ANSYS input file written by Workbench version 17.2 RELEASE
! File used for geometry attach: C:\Users\szalkiewicz\Desktop\RechteckTest.ipt
/title,Das_System--Static Structural (A5)
*DIM,_wb_ProjectScratch_dir,string,248
_wb_ProjectScratch_dir(1) = 'D:\AnsysSimulationen\DevByTry\Das_System_files\dp0\SYS\MECH\'
*DIM,_wb_SolverFiles_dir,string,248
_wb_SolverFiles_dir(1) = 'D:\AnsysSimulationen\DevByTry\Das_System_files\dp0\SYS\MECH\'
*DIM,_wb_userfiles_dir,string,248
_wb_userfiles_dir(1) = 'D:\AnsysSimulationen\DevByTry\Das_System_files\user_files\'
/com,--- Data in consistent NMM units. See Solving Units in the help system for more information.
/units,MPA
/nopr
/wb,file,start              !  signify a WB generated input file
/prep7
! Turn off shape checking because checks already performed inside WB mesher.
! See help system for more information.
SHPP,OFF,,NOWARN
/nolist
etcon,set             ! allow ANSYS to choose best KEYOP's for 180x elements
/com,*********** Nodes for the whole assembly ***********
nblock,3
(1i9,3e20.9e3)
        1    5.000000000E+001    1.526556659E-014    4.500000000E+000
        2    5.000000000E+001    1.526556659E-014    5.500000000E+000
        3    4.956698730E+001    7.500211389E-015    4.750000000E+000
        4    4.956698730E+001   -7.765355199E-015    5.250000000E+000
        5    5.000000000E+001    1.530808499E-014    1.000000000E+001
        6    5.000000000E+001    1.527265299E-014    6.250000000E+000
        7    5.000000000E+001    1.527973939E-014    7.000000000E+000
        8    5.000000000E+001    1.528682579E-014    7.750000000E+000
        9    5.000000000E+001    1.529391219E-014    8.500000000E+000
       10    5.000000000E+001    1.530099859E-014    9.250000000E+000
       11    0.000000000E+000    0.000000000E+000    1.000000000E+001
       12    7.462686567E-001    2.284788804E-016    1.000000000E+001
       13    1.492537313E+000    4.569577609E-016    1.000000000E+001
       14    2.238805970E+000    6.854366413E-016    1.000000000E+001
       15    2.985074627E+000    9.139155218E-016    1.000000000E+001
       16    3.731343284E+000    1.142394402E-015    1.000000000E+001
       17    4.477611940E+000    1.370873283E-015    1.000000000E+001
       18    5.223880597E+000    1.599352163E-015    1.000000000E+001
       19    5.970149254E+000    1.827831044E-015    1.000000000E+001
       20    6.716417910E+000    2.056309924E-015    1.000000000E+001
! ... 7147 like lines cut
/wb,elem,start            !  set before creation of elements
/com,*********** Elements for Body 1 "RechteckTest.ipt" ***********
et,1,187
eblock,19,solid,,3751
(19i9)
        1        1        1        1        0        0        0        0       10        0        1      606      997     1010     1007     4413     6499     4417     4416
     6498     6569
        1        1        1        1        0        0        0        0       10        0        2      762      793     1134     1018     5398     5637     5406     5404
     5636     6625
        1        1        1        1        0        0        0        0       10        0        3      386     1132      505     1015     3204     3940     3200     3202
     6615     3938
        1        1        1        1        0        0        0        0       10        0        4      178      433      547     1009     2043     3561     2044     2047
     3564     4090
        1        1        1        1        0        0        0        0       10        0        5      599      641     1010      606     4350     4595     4354     4347
     4412     4417
        1        1        1        1        0        0        0        0       10        0        6      599      641     1129     1010     4350     4596     4355     4354
     4595     6589
        1        1        1        1        0        0        0        0       10        0        7      177     1009      680      178     2041     4802     2040     2036
     2047     2046
        1        1        1        1        0        0        0        0       10        0        8      402      437     1051     1173     3333     3589     3338     3340
     3590     6791
        1        1        1        1        0        0        0        0       10        0        9     1037     1186     1120     1121     6727     7009     6723     6724
     7012     7004
        1        1        1        1        0        0        0        0       10        0       10     1013     1124     1155     1134     6606     7020     6608     6607
     7019     7059
! ... 7483 like lines cut
!Material Id = {32D2CCBD-220C-479F-A7DA-3B12DF4AB4C1}
/wb,elem,end               !  done creating elements
/com,*********** Send User Defined Coordinate System(s) ***********
csys,0
toffst,273.15,  ! Temperature offset from absolute zero
/com,*********** Set Reference Temperature ***********
tref,22.
/wb,mat,start              !  starting to send materials
/com,*********** Send Materials ***********
MP,DENS,1,7.85e-09,	! tonne mm^-3
MP,ALPX,1,1.2e-05,	! C^-1
MP,C,1,434000000,	! mm^2 s^-2 C^-1
MP,KXX,1,60.5,	! tonne mm s^-3 C^-1
MP,RSVX,1,0.00017,	! ohm mm
MP,EX,1,200000,	! tonne s^-2 mm^-1
MP,NUXY,1,0.3,
MP,MURX,1,10000,

/wb,mat,end                !  done sending materials
!************************* Model Summary ********************
!RechteckTest.ipt,	Structural Steel,	matid,	1
!************************* End Model Summary ********************
! get the diagonal of the bounding box. Needed later for other things
*get,_xmin,node,,mnloc,x
*get,_ymin,node,,mnloc,y
*get,_zmin,node,,mnloc,z
*get,_xmax,node,,mxloc,x
*get,_ymax,node,,mxloc,y
*get,_zmax,node,,mxloc,z
_ASMDIAG=(_xmax-_xmin)*(_xmax-_xmin)+(_ymax-_ymin)*(_ymax-_ymin)+(_zmax-_zmin)*(_zmax-_zmin)
_ASMDIAG=SQRT(_ASMDIAG)
/wb,contact,start          !  starting to send contact
/wb,contact,end            !  done creating contacts
/com,*********** Send Named Selection as Node Component ***********
CMBLOCK,T_KRAFT ,NODE,       12
(8i10)
         1         2         3         4       328      1216      1218      1221
      1223      1226      1227      1233
/com,*********** Send Named Selection as Node Component ***********
CMBLOCK,T_FEST  ,NODE,      307
(8i10)
        11        78        79        80        81        82        83        84
        85        86        87        88        89        90        91       164
       224       225       226       227       228       229       230       231
       232       233       234       235       236       237       329       330
       331       332       333       334       335       336       337       338
       339       340       341       342       343       344       345       346
       347       348       949       950       951       952       953       954
       955       956       957       958       959       960       961       962
       963       964       965       966       967       968       969       970
       971       972       973       974       975       976       977       978
       979       980       981       982       983       984       985       986
       987       988      1261      1262      1573      1575      1577      1579
      1582      1584      1587      1588      1590      1592      1593      1596
      1597      1598      1600      1601      1604      1605      1607      1609
      1610      1611      1614      1615      1617      1618      1619      1622
      1624      1626      1627      1629      1631      1632      1634      1637
      1976      1977      2262      2264      2265      2266      2268      2270
      2272      2273      2274      2277      2278      2281      2282      2283
      2285      2286      2287      2290      2291      2293      2294      2295
      2298      2299      2300      2302      2303      2306      2307      2308
! ... 19 like lines cut
/golist
/wb,load,start             !  starting to send loads
nsel,all
/gst,on,on
fini
*get,_numnode,node,0,count
*get,_numelem,elem,0,count
*get, _MAXELEMNUM, elem, 0, NUM, MAX
*get, _MAXNODENUM, node, 0, NUM, MAX
*get, _MAXELEMTYPE, etyp, 0, NUM, MAX
*get, _MAXREALCONST, real, 0, NUM, MAX
/go
/wb,load,end               !  done creating loads
/com,--- Number of total nodes = %_numnode%
/com,--- Number of contact elements = 0
/com,--- Number of spring elements = 0
/com,--- Number of bearing elements = 0
/com,--- Number of solid elements = 3751
/com,--- Number of total elements = %_numelem%
*get,_wallbsol,active,,time,wall
/com,****************************************************************************
/com,*************************    SOLUTION       ********************************
/com,****************************************************************************
/solu
antype,0                   ! static analysis
eqsl,pcg,1e-8,,,,,,1
cntr,print,1               ! print out contact info and also make no initial contact an error
dmpopt,emat,no             ! Don't combine emat file for DANSYS
dmpopt,esav,no             ! Don't combine esav file for DANSYS
nldiag,cont,iter           ! print out contact info each equilibrium iteration
resc,,none                 ! Do not keep any restart files
/com,****************************************************
/com,******************* SOLVE FOR LS 1 ****************
/nopr
/gopr
nsub,1,1,1
time,1.
outres,erase
outres,all,none
outres,nsol,all
outres,rsol,all
outres,strs,all
outres,epel,all
outres,eppl,all
stabilize,off                   ! Stabilization turned OFF by user
! ****** Begin Command Snippet ******
/GO 
!*  
!*  
!*  
ET,2,SOLID186   
!*  
cmsel,s,T_fest  
d,all,all   
nsel,all
cmsel,s,t_kraft 
f,all,fy,-20000 
nsel,all
! ****** End   Command Snippet ******
! *********** WB SOLVE COMMAND ***********
! check interactive state
*get,ANSINTER_,active,,int
*if,ANSINTER_,ne,0,then
/eof
*endif
solve
/com *************** Write FE CONNECTORS ********* 
CEWRITE,file,ce,,INTE
/com,****************************************************
/com,*************** FINISHED SOLVE FOR LS 1 *************
*set,_DS_PROGRESS          ! turn off progress updates to avoid virus scanning bug
*get,_wallasol,active,,time,wall
/nopr
*get,_numnode,node,0,count
*get,_numelem,elem,0,count
*get, _MAXELEMNUM, elem, 0, NUM, MAX
*get, _MAXNODENUM, node, 0, NUM, MAX,,,INTERNAL
*get, _MAXELEMTYPE, etyp, 0, NUM, MAX
*get, _MAXREALCONST, real, 0, NUM, MAX
/gopr
*get,_PCGITER,active,,solu,cgiter
/post1
xmlo,ENCODING,ISO-8859-1
xmlo,parm
/xml,parm,xml
fini
/gopr
*get,_walldone,active,,time,wall
_preptime=(_wallbsol-_wallstrt)*3600
_solvtime=(_wallasol-_wallbsol)*3600
_posttime=(_walldone-_wallasol)*3600
_totaltim=(_walldone-_wallstrt)*3600
/wb,file,end               ! done with WB generated input
