
 ANSYS Academic Research                           


 *------------------------------------------------------------------*
 |                                                                  |
 |   W E L C O M E   T O   T H E   A N S Y S (R)  P R O G R A M     |
 |                                                                  |
 *------------------------------------------------------------------*




 ***************************************************************
 *            ANSYS Release 17.2     LEGAL NOTICES             *
 ***************************************************************
 *                                                             *
 * Copyright 2016 SAS IP, Inc.  All rights reserved.           *
 * Unauthorized use, distribution or duplication is            *
 * prohibited.                                                 *
 *                                                             *
 * Ansys is a registered trademark of ANSYS, Inc. or its       *
 * subsidiaries in the United States or other countries.       *
 * See the ANSYS, Inc. online documentation or the ANSYS, Inc. *
 * documentation CD or online help for the complete Legal      *
 * Notice.                                                     *
 *                                                             *
 ***************************************************************
 *                                                             *
 * THIS ANSYS SOFTWARE PRODUCT AND PROGRAM DOCUMENTATION       *
 * INCLUDE TRADE SECRETS AND CONFIDENTIAL AND PROPRIETARY      *
 * PRODUCTS OF ANSYS, INC., ITS SUBSIDIARIES, OR LICENSORS.    *
 * The software products and documentation are furnished by    *
 * ANSYS, Inc. or its subsidiaries under a software license    *
 * agreement that contains provisions concerning               *
 * non-disclosure, copying, length and nature of use,          *
 * compliance with exporting laws, warranties, disclaimers,    *
 * limitations of liability, and remedies, and other           *
 * provisions.  The software products and documentation may be *
 * used, disclosed, transferred, or copied only in accordance  *
 * with the terms and conditions of that software license      *
 * agreement.                                                  *
 *                                                             *
 * ANSYS, Inc. is a UL registered                              *
 * ISO 9001:2008 company.                                      *
 *                                                             *
 ***************************************************************
 *                                                             *
 * This product is subject to U.S. laws governing export and   *
 * re-export.                                                  *
 *                                                             *
 * For U.S. Government users, except as specifically granted   *
 * by the ANSYS, Inc. software license agreement, the use,     *
 * duplication, or disclosure by the United States Government  *
 * is subject to restrictions stated in the ANSYS, Inc.        *
 * software license agreement and FAR 12.212 (for non-DOD      *
 * licenses).                                                  *
 *                                                             *
 ***************************************************************

 Release 17.2
     
 Point Releases and Patches installed:   
     
 ANSYS, Inc. Products Release 17.2   
 ANSYS Mechanical Products Release 17.2  
 ANSYS Customization Files for User Programmable Features Release 17.2   
 ANSYS Autodyn Release 17.2  
 ANSYS LS-DYNA Release 17.2  
 ANSYS AIM Release 17.2  
 ANSYS CFX (includes ANSYS CFD-Post) Release 17.2
 ANSYS Fluent (includes ANSYS CFD-Post) Release 17.2 
 ANSYS TurboGrid Release 17.2
 ANSYS Polyflow (includes ANSYS CFD-Post) Release 17.2   
 ANSYS CFD-Post only Release 17.2
 ANSYS Forte Release 17.2
 ANSYS ICEM CFD Release 17.2 
 ANSYS Aqwa Release 17.2 
 ANSYS Composite PrepPost Release 17.2   
 ANSYS Icepak (includes ANSYS CFD-Post) Release 17.2 
 AutoCAD Release 17.2
 ACIS Release 17.2   
 Catia, Version 5 Release 17.2   
 Catia, Version 6 Release 17.2   
 Creo Elements/Direct Modeling Release 17.2  
 Inventor Release 17.2   
 JTOpen Release 17.2 
 NX Release 17.2 
 Parasolid Release 17.2  
 Creo Parametric (formerly Pro/ENGINEER) Release 17.2
 Solid Edge Release 17.2 
 SolidWorks Release 17.2 
 ANSYS, Inc. License Manager Release 17.2


          *****  ANSYS COMMAND LINE ARGUMENTS  *****
  INITIAL JOBNAME              = file                                                                                                                                                                                                                                                    
  BATCH MODE REQUESTED (-b)    = NOLIST
  INPUT FILE COPY MODE (-c)    = COPY
  SHARED MEMORY PARALLEL REQUESTED
    SINGLE PROCESS WITH   2 THREADS REQUESTED
    TOTAL OF     2 CORES REQUESTED
  DESIGNXPLORER REQUESTED
  MEMORY REQUESTED (MB)        = 2048        
  START-UP FILE MODE           = READ  
  STOP FILE MODE               = READ  
  DATABASE SIZE REQUESTED (MB) = 1024        

 RELEASE= Release 17.2         BUILD= 17.2      UP20160718   VERSION=WINDOWS x64 
 CURRENT JOBNAME=file  17:36:23  JAN 30, 2018 CP=      0.609


 RUN SETUP PROCEDURE FROM FILE= D:\Programme\Ansys\ANSYS Inc\v172\ANSYS\apdl\start.ans

 /INPUT FILE= D:\Programme\Ansys\ANSYS Inc\v172\ANSYS\apdl\start.ans  LINE=       0

 /INPUT FILE= SYS.dat  LINE=       0



 DO NOT WRITE ELEMENT RESULTS INTO DATABASE

 *GET  _WALLSTRT  FROM  ACTI  ITEM=TIME WALL  VALUE=  17.6066667    

 TITLE= 
 unsaved_project--Statisch-mechanisch                                          


 SET PARAMETER DIMENSIONS ON  _WB_PROJECTSCRATCH_DIR
  TYPE=STRI  DIMENSIONS=      248        1        1

 PARAMETER _WB_PROJECTSCRATCH_DIR(1) = C:\Users\szalkiewicz\AppData\Local\Temp\WB_WZM126-AZ12_szalkiewicz_11096_2\unsaved_project_files\dp0\SYS\MECH\

 SET PARAMETER DIMENSIONS ON  _WB_SOLVERFILES_DIR
  TYPE=STRI  DIMENSIONS=      248        1        1

 PARAMETER _WB_SOLVERFILES_DIR(1) = C:\Users\szalkiewicz\AppData\Local\Temp\WB_WZM126-AZ12_szalkiewicz_11096_2\unsaved_project_files\dp0\SYS\MECH\

 SET PARAMETER DIMENSIONS ON  _WB_USERFILES_DIR
  TYPE=STRI  DIMENSIONS=      248        1        1

 PARAMETER _WB_USERFILES_DIR(1) = C:\Users\szalkiewicz\AppData\Local\Temp\WB_WZM126-AZ12_szalkiewicz_11096_2\unsaved_project_files\user_files\
 --- Data in consistent NMM units. See Solving Units in the help system for more

 MPA UNITS SPECIFIED FOR INTERNAL    
  LENGTH      = MILLIMETERS (mm)
  MASS        = TONNE (Mg)
  TIME        = SECONDS (sec)
  TEMPERATURE = CELSIUS (C)
  TOFFSET     = 273.0
  FORCE       = NEWTON (N)
  HEAT        = MILLIJOULES (mJ)

 INPUT  UNITS ARE ALSO SET TO MPA 

 *** ANSYS - ENGINEERING ANALYSIS SYSTEM  RELEASE Release 17.2     17.2     ***
 ANSYS Academic Research                           
 00407677  VERSION=WINDOWS x64   17:36:24  JAN 30, 2018 CP=      0.656

 unsaved_project--Statisch-mechanisch                                          



          ***** ANSYS ANALYSIS DEFINITION (PREP7) *****
 *********** Nodes for the whole assembly ***********
 *********** Elements for Body 1 "RechteckTest.ipt" ***********
 *********** Send User Defined Coordinate System(s) ***********
 *********** Send Materials ***********

 /INPUT FILE= write_verify_update.inp  LINE=       0

 *GET  ANSINTER_  FROM  ACTI  ITEM=INT        VALUE=  0.00000000    

 *IF  ANSINTER_                         ( =   0.00000     )  EQ  
      0                                 ( =   0.00000     )  THEN    

 /OUTPUT FILE= verify_update.out

 *ENDIF

 *GET  ANSINTER_  FROM  ACTI  ITEM=INT        VALUE=  0.00000000    

 *IF  ANSINTER_                         ( =   0.00000     )  EQ  
      0                                 ( =   0.00000     )  THEN    


 ***** ROUTINE COMPLETED *****  CP =         0.688



 EXIT ANSYS WITHOUT SAVING DATABASE


 NUMBER OF WARNING MESSAGES ENCOUNTERED=          0
 NUMBER OF ERROR   MESSAGES ENCOUNTERED=          0

+--------------------- A N S Y S   S T A T I S T I C S ------------------------+

Release: Release 17.2       Build: 17.2       Update: UP20160718   Platform: WINDOWS x64 
Date Run: 01/30/2018   Time: 17:36
Operating System: Windows 10  (Build: 10240)
Windows Process ID: 3428        

Processor Model:         Intel(R) Core(TM) i7-3770 CPU @ 3.40GHz

Compiler: Intel(R) FORTRAN Compiler Version 15.0.2  (Build: 20150121)
          Intel(R) C/C++ Compiler Version 15.0.2  (Build: 20150121)
          Intel(R) Math Kernel Library Version 11.2.3 Product Build 20150413

Number of machines requested            :    1
Total number of cores available         :    8
Number of physical cores available      :    4
Number of processes requested           :    1
Number of threads per process requested :    2
Total number of cores requested         :    2 (Shared Memory Parallel)                    

GPU Acceleration: Not Requested

Job Name: file
Working Directory: C:\Users\szalkiewicz\AppData\Local\Temp\WB_WZM126-AZ12_szalkiewicz_11096_2\unsaved_project_files\dp0\APDL\ANSYS

Total CPU time for main thread                    :        0.7 seconds
Total CPU time summed for all threads             :        1.1 seconds

Elapsed time spent pre-processing model (/PREP7)  :        0.0 seconds
Elapsed time spent solution - preprocessing       :        0.0 seconds
Elapsed time spent computing solution             :        0.0 seconds
Elapsed time spent solution - postprocessing      :        0.0 seconds
Elapsed time spent post-processing model (/POST1) :        0.0 seconds
 

Maximum total memory used                         :       29.0 MB
Maximum total memory allocated                    :     2048.0 MB
Maximum total memory available                    :         32 GB

+------------------ E N D   A N S Y S   S T A T I S T I C S -------------------+


 *---------------------------------------------------------------------------*
 |                                                                           |
 |                            ANSYS RUN COMPLETED                            |
 |                                                                           |
 |---------------------------------------------------------------------------|
 |                                                                           |
 | Ansys Release 17.2          Build 17.2         UP20160718     WINDOWS x64 |
 |                                                                           |
 |---------------------------------------------------------------------------|
 |                                                                           |
 | Database Requested(-db)  1024 MB    Scratch Memory Requested       960 MB |
 | Maximum Database Used       1 MB    Maximum Scratch Memory Used     28 MB |
 |                                                                           |
 |---------------------------------------------------------------------------|
 |                                                                           |
 |        CP Time      (sec) =          1.078       Time  =  17:36:25        |
 |        Elapsed Time (sec) =          4.000       Date  =  01/30/2018      |
 |                                                                           |
 *---------------------------------------------------------------------------*
